Circuit: * C:\Users\ianto\Desktop\Uni\EUIU\KR\MetalDetector\Simulation\metal_detector_sim.asc

WARNING: Node N003 is floating.

Direct Newton iteration for .op point succeeded.

Date: Sat Dec 16 19:17:54 2023
Total elapsed time: 3.342 seconds.

tnom = 27
temp = 27
method = modified trap
totiter = 463370
traniter = 463356
tranpoints = 135272
accept = 97508
rejected = 37764
matrix size = 22
fillins = 11
solver = Normal
Matrix Compiler1:      99 opcodes  0.3/[0.1]/0.2
Matrix Compiler2: 2.13 KB object code size  0.2/0.2/[0.2]

